models/feeders/GridLABD/IEEE/IEEE13_cdpsm.glm
object regulator_configuration {
  name "rcon_reg3";
  connect_type WYE_WYE;
  Control MANUAL; // LINE_DROP_COMP;
  // use these for OUTPUT_VOLTAGE mode
  // band_center 2440.000000;
  // band_width 40.000000;
  // use these for LINE_DROP_COMP mode
  // band_center 122.000000;
  // band_width 2.000000;
  // transducer ratios only apply to LINE_DROP_COMP mode
  current_transducer_ratio 3500.000000;
  power_transducer_ratio 20.000000;
  dwell_time 15.000000;
  raise_taps 16;
  lower_taps 16;
  regulation 0.100000;
  Type B;
  compensator_r_setting_C 3.000000;
  compensator_x_setting_C 9.000000;
  // comment out the manual tap setting if using automatic control
  tap_pos_C 11;
  compensator_r_setting_A 3.000000;
  compensator_x_setting_A 9.000000;
  // comment out the manual tap setting if using automatic control
  tap_pos_A 10;
  compensator_r_setting_B 3.000000;
  compensator_x_setting_B 9.000000;
  // comment out the manual tap setting if using automatic control
  tap_pos_B 8;
}
object regulator {
  name "xf_Reg";
  from "brkr";
  to "rg60";
  phases CAB;
  configuration "rcon_reg3";
  continuous_rating_A 763.58;
  continuous_rating_B 763.58;
  continuous_rating_C 763.58;
  emergency_rating_A 1041.25;
  emergency_rating_B 1041.25;
  emergency_rating_C 1041.25;
}
object line_configuration {
  name "lcon_mtx602_ABC";
  z11 0.752600+1.18140j;
  c11 0.0000;
  z12 0.153500+0.384900j;
  c12 0.0000;
  z13 0.156000+0.501700j;
  c13 0.0000;
  z21 0.153500+0.384900j;
  c21 0.0000;
  z22 0.747500+1.19830j;
  c22 0.0000;
  z23 0.158000+0.423600j;
  c23 0.0000;
  z31 0.156000+0.501700j;
  c31 0.0000;
  z32 0.158000+0.423600j;
  c32 0.0000;
  z33 0.743600+1.21120j;
  c33 0.0000;
}
object line_configuration {
  name "lcon_mtx604_AC";
  z11 1.32380+1.35690j;
  c11 0.0000;
  z13 0.206600+0.459100j;
  c13 0.0000;
  z31 0.206600+0.459100j;
  c31 0.0000;
  z33 1.32940+1.34710j;
  c33 0.0000;
}
object line_configuration {
  name "lcon_mtx601_ABC";
  z11 0.346500+1.01790j;
  c11 0.0000;
  z12 0.153500+0.384900j;
  c12 0.0000;
  z13 0.158000+0.423600j;
  c13 0.0000;
  z21 0.153500+0.384900j;
  c21 0.0000;
  z22 0.337500+1.04780j;
  c22 0.0000;
  z23 0.156000+0.501700j;
  c23 0.0000;
  z31 0.158000+0.423600j;
  c31 0.0000;
  z32 0.156000+0.501700j;
  c32 0.0000;
  z33 0.341400+1.03480j;
  c33 0.0000;
}
object line_configuration {
  name "lcon_mtx606_ABC";
  z11 0.791721+0.438352j;
  c11 383.9480;
  z12 0.318476+0.0276838j;
  c12 0.0000;
  z13 0.283450-0.0184204j;
  c13 0.0000;
  z21 0.318476+0.0276838j;
  c21 0.0000;
  z22 0.781649+0.396697j;
  c22 383.9480;
  z23 0.318476+0.0276838j;
  c23 0.0000;
  z31 0.283450-0.0184204j;
  c31 0.0000;
  z32 0.318476+0.0276838j;
  c32 0.0000;
  z33 0.791721+0.438352j;
  c33 383.9480;
}
object line_configuration {
  name "lcon_mtx605_C";
  z33 1.32920+1.34750j;
  c33 0.0000;
}
object line_configuration {
  name "lcon_mtx603_CB";
  z33 1.32380+1.35690j;
  c33 0.0000;
  z32 0.206600+0.459100j;
  c32 0.0000;
  z23 0.206600+0.459100j;
  c23 0.0000;
  z22 1.32940+1.34710j;
  c22 0.0000;
}
object line_configuration {
  name "lcon_mtx607_A";
  z11 1.34250+0.512400j;
  c11 236.0000;
}
object transformer_configuration {
  name "xcon_ct5B";
  power_rating 5.000;
  powerA_rating 0.0;
  powerB_rating 5.000;
  powerC_rating 0.0;
  primary_voltage 2400.000;
  secondary_voltage 120.000;
  connect_type SINGLE_PHASE_CENTER_TAPPED;
  impedance 0.00600000+0.0136000j;
  impedance1 0.0120000+0.00680000j;
  impedance2 0.0120000+0.00680000j;
  shunt_reactance 200.000000;
  shunt_resistance 500.000000;
}
object capacitor {
  name "cap_cap1";
  parent "675";
  phases ABCN;
  phases_connected ABCN;
  cap_nominal_voltage 2401.78;
  nominal_voltage 2401.78;
  capacitor_A 200000.00;
  switchA CLOSED;
  capacitor_B 200000.00;
  switchB CLOSED;
  capacitor_C 200000.00;
  switchC CLOSED;
}
object capacitor {
  name "cap_cap2";
  parent "611";
  phases CN;
  phases_connected CN;
  cap_nominal_voltage 2400.00;
  nominal_voltage 2400.00;
  capacitor_C 100000.00;
  switchC CLOSED;
}
object inverter {
  name "inv_pv_school";
  parent "634_pvmtr";
  phases ABCN;
  generator_status ONLINE;
  inverter_type FOUR_QUADRANT;
  inverter_efficiency 1.0;
  use_multipoint_efficiency FALSE;
  V_base 480.000;
  rated_power 100000.000; // per phase!
  P_Out 240000.000;
  four_quadrant_control_mode CONSTANT_PF;
  power_factor 1.0000;
  object solar {
    name "pv_school";
    panel_type SINGLE_CRYSTAL_SILICON;
    efficiency 0.2;
    derating 1.0;
    soiling 1.0;
    rated_power 300000.000;
  };
}
object inverter {
  name "inv_pv_house";
  parent "house_pvmtr";
  phases BS;
  generator_status ONLINE;
  inverter_type FOUR_QUADRANT;
  inverter_efficiency 1.0;
  use_multipoint_efficiency FALSE;
  V_base 208.000;
  rated_power 5000.000; // per phase!
  P_Out 4000.000;
  four_quadrant_control_mode CONSTANT_PF;
  power_factor 1.0000;
  object solar {
    name "pv_house";
    panel_type SINGLE_CRYSTAL_SILICON;
    efficiency 0.2;
    derating 1.0;
    soiling 1.0;
    rated_power 5000.000;
  };
}
object inverter {
  name "inv_bat_school";
  parent "634_stmtr";
  phases ABCN;
  generator_status ONLINE;
  generator_mode CONSTANT_PQ;
  inverter_type FOUR_QUADRANT;
  charge_lockout_time 1;
  discharge_lockout_time 1;
  sense_object "634_stmtr";
  charge_on_threshold -2000.000;
  charge_off_threshold 0.000;
  discharge_off_threshold 40000.000;
  discharge_on_threshold 60000.000;
  inverter_efficiency 0.975;
  use_multipoint_efficiency FALSE;
  V_base 480.000;
  rated_power 33333.333; // per phase!
  max_charge_rate 100000.000;
  max_discharge_rate 100000.000;
  P_Out 100000.000;
  four_quadrant_control_mode CONSTANT_PF;
  power_factor 1.0000;
  object battery {
    name "bat_school";
    nominal_voltage 48;
    battery_capacity 200000.0;
    state_of_charge 0.5000;
    use_internal_battery_model true;
    battery_type LI_ION;
    round_trip_efficiency 0.86;
    rated_power 100000.000;
  };
}
object inverter {
  name "inv_bat_house";
  parent "house_stmtr";
  phases BS;
  generator_status ONLINE;
  generator_mode CONSTANT_PQ;
  inverter_type FOUR_QUADRANT;
  charge_lockout_time 1;
  discharge_lockout_time 1;
  sense_object "house_stmtr";
  charge_on_threshold -100.000;
  charge_off_threshold 0.000;
  discharge_off_threshold 2000.000;
  discharge_on_threshold 3000.000;
  inverter_efficiency 0.975;
  use_multipoint_efficiency FALSE;
  V_base 208.000;
  rated_power 5000.000; // per phase!
  max_charge_rate 5000.000;
  max_discharge_rate 5000.000;
  P_Out -5000.000;
  four_quadrant_control_mode CONSTANT_PF;
  power_factor -1.0000;
  object battery {
    name "bat_house";
    nominal_voltage 48;
    battery_capacity 13500.0;
    state_of_charge 0.3704;
    use_internal_battery_model true;
    battery_type LI_ION;
    round_trip_efficiency 0.86;
    rated_power 5000.000;
  };
}
object inverter {
  name "inv_bat_batidle";
  parent "634_stmtr";
  phases ABCN;
  generator_status ONLINE;
  generator_mode CONSTANT_PQ;
  inverter_type FOUR_QUADRANT;
  charge_lockout_time 1;
  discharge_lockout_time 1;
  sense_object "634_stmtr";
  charge_on_threshold -2000.000;
  charge_off_threshold 0.000;
  discharge_off_threshold 40000.000;
  discharge_on_threshold 60000.000;
  inverter_efficiency 0.975;
  use_multipoint_efficiency FALSE;
  V_base 480.000;
  rated_power 33333.333; // per phase!
  max_charge_rate 100000.000;
  max_discharge_rate 100000.000;
  P_Out -1000.000;
  four_quadrant_control_mode CONSTANT_PF;
  power_factor -1.0000;
  object battery {
    name "bat_batidle";
    nominal_voltage 48;
    battery_capacity 200000.0;
    state_of_charge 0.5000;
    use_internal_battery_model true;
    battery_type LI_ION;
    round_trip_efficiency 0.86;
    rated_power 100000.000;
  };
}
object overhead_line {
  name "line_670671";
  from "670";
  to "671";
  phases ABC;
  length 1333.0000;
  continuous_rating_A 730.00;
  continuous_rating_B 730.00;
  continuous_rating_C 730.00;
  emergency_rating_A 730.00;
  emergency_rating_B 730.00;
  emergency_rating_C 730.00;
  configuration "lcon_mtx601_ABC";
}
object overhead_line {
  name "line_692675";
  from "692";
  to "675";
  phases ABC;
  length 500.0000;
  continuous_rating_A 260.00;
  continuous_rating_B 260.00;
  continuous_rating_C 260.00;
  emergency_rating_A 600.00;
  emergency_rating_B 600.00;
  emergency_rating_C 600.00;
  configuration "lcon_mtx606_ABC";
}
object overhead_line {
  name "line_671684";
  from "671";
  to "684";
  phases AC;
  length 300.0000;
  continuous_rating_A 230.00;
  continuous_rating_C 230.00;
  emergency_rating_A 600.00;
  emergency_rating_C 600.00;
  configuration "lcon_mtx604_AC";
}
object overhead_line {
  name "line_645646";
  from "645";
  to "646";
  phases CB;
  length 300.0000;
  continuous_rating_B 230.00;
  continuous_rating_C 230.00;
  emergency_rating_B 600.00;
  emergency_rating_C 600.00;
  configuration "lcon_mtx603_CB";
}
object overhead_line {
  name "line_684611";
  from "tap";
  to "611";
  phases C;
  length 300.0000;
  continuous_rating_C 230.00;
  emergency_rating_C 600.00;
  configuration "lcon_mtx605_C";
}
object overhead_line {
  name "line_632645";
  from "632";
  to "645";
  phases CB;
  length 500.0000;
  continuous_rating_B 230.00;
  continuous_rating_C 230.00;
  emergency_rating_B 600.00;
  emergency_rating_C 600.00;
  configuration "lcon_mtx603_CB";
}
object overhead_line {
  name "line_632633";
  from "632";
  to "633";
  phases ABC;
  length 500.0000;
  continuous_rating_A 340.00;
  continuous_rating_B 340.00;
  continuous_rating_C 340.00;
  emergency_rating_A 600.00;
  emergency_rating_B 600.00;
  emergency_rating_C 600.00;
  configuration "lcon_mtx602_ABC";
}
object overhead_line {
  name "line_632670";
  from "mid";
  to "670";
  phases ABC;
  length 667.0000;
  continuous_rating_A 730.00;
  continuous_rating_B 730.00;
  continuous_rating_C 730.00;
  emergency_rating_A 730.00;
  emergency_rating_B 730.00;
  emergency_rating_C 730.00;
  configuration "lcon_mtx601_ABC";
}
object overhead_line {
  name "line_671680";
  from "671";
  to "680";
  phases ABC;
  length 1000.0000;
  continuous_rating_A 730.00;
  continuous_rating_B 730.00;
  continuous_rating_C 730.00;
  emergency_rating_A 730.00;
  emergency_rating_B 730.00;
  emergency_rating_C 730.00;
  configuration "lcon_mtx601_ABC";
}
object overhead_line {
  name "line_650632";
  from "rg60";
  to "632";
  phases ABC;
  length 2000.0000;
  continuous_rating_A 730.00;
  continuous_rating_B 730.00;
  continuous_rating_C 730.00;
  emergency_rating_A 730.00;
  emergency_rating_B 730.00;
  emergency_rating_C 730.00;
  configuration "lcon_mtx601_ABC";
}
object overhead_line {
  name "line_684652";
  from "684";
  to "652";
  phases A;
  length 800.0000;
  continuous_rating_A 165.00;
  emergency_rating_A 600.00;
  configuration "lcon_mtx607_A";
}
object switch { // CIM LoadBreakSwitch
  name "swt_671692";
  from "671";
  to "692";
  phases ABC;
  status CLOSED;
  continuous_rating_A 400.00;
  continuous_rating_B 400.00;
  continuous_rating_C 400.00;
  emergency_rating_A 600.00;
  emergency_rating_B 600.00;
  emergency_rating_C 600.00;
}
object switch { // CIM Breaker
  name "swt_brkr1";
  from "650";
  to "brkr";
  phases ABC;
  status CLOSED;
  continuous_rating_A 400.00;
  continuous_rating_B 400.00;
  continuous_rating_C 400.00;
  emergency_rating_A 600.00;
  emergency_rating_B 600.00;
  emergency_rating_C 600.00;
}
object switch { // CIM LoadBreakSwitch
  name "swt_sect1";
  from "684";
  to "tap";
  phases C;
  status CLOSED;
  continuous_rating_C 400.00;
  emergency_rating_C 600.00;
}
object fuse {
  name "swt_fuse1";
  from "633";
  to "xf1";
  phases ABC;
  current_limit 100.00;
  status CLOSED;
  mean_replacement_time 3600;
  continuous_rating_A 400.00;
  continuous_rating_B 400.00;
  continuous_rating_C 400.00;
  emergency_rating_A 600.00;
  emergency_rating_B 600.00;
  emergency_rating_C 600.00;
}
object recloser {
  name "swt_rec1";
  from "632";
  to "mid";
  phases ABC;
  status CLOSED;
  continuous_rating_A 400.00;
  continuous_rating_B 400.00;
  continuous_rating_C 400.00;
  emergency_rating_A 600.00;
  emergency_rating_B 600.00;
  emergency_rating_C 600.00;
}
object transformer_configuration {
  name "xcon_sub3";
  connect_type DELTA_GWYE;
  primary_voltage 115000.000;
  secondary_voltage 4160.000;
  power_rating 5000.000;
  resistance 0.000010;
  reactance 0.000100;
}
object transformer {
  name "xf_sub3";
  from "sourcebus";
  to "650";
  phases ABCN;
  configuration "xcon_sub3";
  continuous_rating_A 27.61;
  continuous_rating_B 27.61;
  continuous_rating_C 27.61;
  emergency_rating_A 37.65;
  emergency_rating_B 37.65;
  emergency_rating_C 37.65;
  // vector group Dyn1y1;
}
object transformer_configuration {
  name "xcon_xfm1";
  connect_type WYE_WYE;
  primary_voltage 4160.000;
  secondary_voltage 480.000;
  power_rating 500.000;
  resistance 0.011000;
  reactance 0.020000;
}
object transformer {
  name "xf_xfm1";
  from "xf1";
  to "634";
  phases ABCN;
  configuration "xcon_xfm1";
  continuous_rating_A 76.33;
  continuous_rating_B 76.33;
  continuous_rating_C 76.33;
  emergency_rating_A 104.09;
  emergency_rating_B 104.09;
  emergency_rating_C 104.09;
  // vector group Yy;
}
object transformer {
  name "xf_tpoletop";
  from "670";
  to "house";
  phases BS;
  configuration "xcon_ct5B";
  // vector group Iii;
}
object substation {
  name "sourcebus";
  bustype SWING;
  phases ABCN;
  nominal_voltage 66395.28;
  base_power 12MVA;
  power_convergence_value 100VA;
  positive_sequence_voltage ${VSOURCE};
}
object node {
  name "tap";
  phases CN;
  nominal_voltage 2401.78;
}
object node {
  name "xf1";
  phases ABCN;
  nominal_voltage 2401.78;
}
object node {
  name "mid";
  phases ABCN;
  nominal_voltage 2401.78;
}
object triplex_node {
  name "house";
  phases BS;
  nominal_voltage 120.09;
}
object triplex_meter {
  name "house_pvmtr";
  parent "house";
  phases BS;
  nominal_voltage 120.09;
}
object triplex_meter {
  name "house_stmtr";
  parent "house";
  phases BS;
  nominal_voltage 120.09;
}
object triplex_load {
  name "ld_house";
  parent "house";
  phases BS;
  nominal_voltage 120.09;
  base_power_1 ieeezipload.value*2941.18;
  current_fraction_1 1.000000;
  current_pf_1 0.850000;
  base_power_2 ieeezipload.value*2941.18;
  current_fraction_2 1.000000;
  current_pf_2 0.850000;
}
object node {
  name "680";
  phases ABCN;
  nominal_voltage 2401.78;
}
object node {
  name "670";
  phases ABCN;
  nominal_voltage 2401.78;
}
object load {
  name "ld_670a";
  parent "670";
  phases ABCN;
  nominal_voltage 2401.78;
  base_power_A ieeezipload.value*19723.08;
  current_fraction_A 1.000000;
  current_pf_A 0.861934;
  base_power_B ieeezipload.value*76157.73;
  current_fraction_B 1.000000;
  current_pf_B 0.866622;
  base_power_C ieeezipload.value*135325.53;
  current_fraction_C 1.000000;
  current_pf_C 0.864582;
}
object node {
  name "692";
  phases ABCN;
  nominal_voltage 2401.78;
}
object load {
  name "ld_692";
  parent "692";
  phases ABCD;
  nominal_voltage 2401.78;
  base_power_C ieeezipload.value*227378.54;
  current_fraction_C 1.000000;
  current_pf_C 0.747652;
}
object node {
  name "671";
  phases ABCN;
  nominal_voltage 2401.78;
}
object load {
  name "ld_671";
  parent "671";
  phases ABCD;
  nominal_voltage 2401.78;
  base_power_A ieeezipload.value*443424.18;
  current_fraction_A 1.000000;
  current_pf_A 0.868243;
  base_power_B ieeezipload.value*443424.18;
  current_fraction_B 1.000000;
  current_pf_B 0.868243;
  base_power_C ieeezipload.value*443424.18;
  current_fraction_C 1.000000;
  current_pf_C 0.868243;
}
object node {
  name "650";
  phases ABCN;
  nominal_voltage 2401.78;
}
object node {
  name "684";
  phases ACN;
  nominal_voltage 2401.78;
}
object node {
  name "652";
  phases AN;
  nominal_voltage 2401.78;
}
object load {
  name "ld_652";
  parent "652";
  phases AN;
  nominal_voltage 2401.78;
  base_power_A ieeezipload.value*154207.65;
  current_fraction_A 1.000000;
  current_pf_A 0.830050;
}
object node {
  name "675";
  phases ABCN;
  nominal_voltage 2401.78;
}
object load {
  name "ld_675a";
  parent "675";
  phases ABCN;
  nominal_voltage 2401.78;
  base_power_A ieeezipload.value*520888.66;
  current_fraction_A 1.000000;
  current_pf_A 0.931101;
  base_power_B ieeezipload.value*90686.27;
  current_fraction_B 1.000000;
  current_pf_B 0.749838;
  base_power_C ieeezipload.value*359226.95;
  current_fraction_C 1.000000;
  current_pf_C 0.807289;
}
object node {
  name "632";
  phases ABCN;
  nominal_voltage 2401.78;
}
object node {
  name "633";
  phases ABCN;
  nominal_voltage 2401.78;
}
object node {
  name "611";
  phases CN;
  nominal_voltage 2401.78;
}
object load {
  name "ld_611";
  parent "611";
  phases CN;
  nominal_voltage 2401.78;
  base_power_C ieeezipload.value*187882.94;
  current_fraction_C 1.000000;
  current_pf_C 0.904819;
}
object node {
  name "645";
  phases BCN;
  nominal_voltage 2401.78;
}
object load {
  name "ld_645";
  parent "645";
  phases BCN;
  nominal_voltage 2401.78;
  base_power_B ieeezipload.value*211009.48;
  current_fraction_B 1.000000;
  current_pf_B 0.805651;
}
object node {
  name "634";
  phases ABCN;
  nominal_voltage 277.13;
  bustype SWING_PQ;
}
object meter {
  name "634_pvmtr";
  parent "634";
  phases ABCN;
  nominal_voltage 277.13;
}
object meter {
  name "634_stmtr";
  parent "634";
  phases ABCN;
  nominal_voltage 277.13;
}
object load {
  name "ld_634c";
  parent "634";
  phases ABCN;
  nominal_voltage 277.13;
  base_power_A ieeezipload.value*194164.88;
  current_fraction_A 1.000000;
  current_pf_A 0.824042;
  base_power_B ieeezipload.value*150000.00;
  current_fraction_B 1.000000;
  current_pf_B 0.800000;
  base_power_C ieeezipload.value*150000.00;
  current_fraction_C 1.000000;
  current_pf_C 0.800000;
}
object node {
  name "646";
  phases BCN;
  nominal_voltage 2401.78;
}
object load {
  name "ld_646";
  parent "646";
  phases BCD;
  nominal_voltage 2401.78;
  base_power_B ieeezipload.value*265186.73;
  current_fraction_B 1.000000;
  current_pf_B 0.867313;
}
object node {
  name "brkr";
  phases ABCN;
  nominal_voltage 2401.78;
}
object node {
  name "rg60";
  phases ABCN;
  nominal_voltage 2401.78;
}
